.include "../50002/nominal.jsim"
.include "../50002/8clocks.jsim"
.include "../50002/lab2checkoff.jsim"
.include "gates.jsim"

.subckt FA a b cin s cout
Xxor0 a b 1 xor2
Xxor1 cin 1 s xor2
Xnand0 a b 2 nand2
Xnand1 b cin 3 nand2
Xnand2 a cin 4 nand2
Xnand3 2 3 4 cout nand3
.ends

.subckt ADDER4 a3 a2 a1 a0 b3 b2 b1 b0 s4 s3 s2 s1 s0
Xbit0 a0 b0 0 s0 c0 FA
Xbit1 a1 b1 c0 s1 c1 FA
Xbit2 a2 b2 c1 s2 c2 FA
Xbit3 a3 b3 c2 s3 s4 FA
.ends